12
Lattice="3.70801568442371 0 0 5.21891685381162e-15 3.70801568458496 0 1.61331383396981e-14 3.9177100683785e-15 8.91218738866944"
Ti 3.82904 0.121022 0.549106
Ti 1.97503 0.121022 7.23325
Ti 3.82904 1.97503 2.77715
Ti 1.97503 1.97503 5.0052
O 3.82904 0.121022 2.48217
O 1.97503 0.121022 5.30018
O 3.82904 1.97503 4.71022
O 1.97503 0.121022 9.16631
O 3.82904 1.97503 0.84409
O 3.82904 0.121022 7.52823
O 1.97503 1.97503 6.93826
O 1.97503 1.97503 3.07214
12
Lattice="4.6629288015196 0 0 4.61044564331872e-08 4.80626474548741 0 -0.541039231222108 -7.80893628540471e-08 4.72158478786135"
Ti 1.26629 0.268265 1.03337
Ti 3.03867 4.76767 3.82143
Ti 0.99577 2.36454 3.39416
Ti 3.30919 2.6714 1.46064
O 0.347461 1.85555 1.51946
O 3.9575 3.18039 3.33533
O 0.0769413 0.777256 3.88026
O 4.22802 4.25868 0.974539
O 1.87557 3.76205 2.33538
O 2.4294 1.27389 2.51941
O 1.60505 3.67702 4.69618
O 2.69992 1.35892 0.15862
24
Lattice="8.97703359577164 0 0 4.27989927190677e-06 5.26095048379772 0 4.63581131650196e-05 3.57511984148625e-05 4.92036635055726"
Ti 1.51251 0.690878 4.47345
Ti 3.63688 4.9328 2.01326
Ti 8.12539 4.9328 0.879519
Ti 3.6369 3.32135 4.47344
Ti 1.51248 2.30233 2.01326
Ti 6.00101 0.690873 3.33971
Ti 6.00099 2.30232 0.879525
Ti 8.12541 3.32135 3.33971
O 0.479543 0.941633 1.1967
O 4.66981 4.68204 3.65687
O 9.15835 4.68204 4.15627
O 4.66979 3.57211 1.19669
O 0.47957 2.05156 3.65688
O 4.96808 0.941637 1.6961
O 4.9681 2.05157 4.15628
O 9.15832 3.57211 1.69609
O 2.51194 0.895017 2.87596
O 2.6374 4.72863 0.415782
O 7.12595 4.72866 2.47701
O 2.63743 3.52549 2.87596
O 2.51193 2.09815 0.415775
O 7.00049 0.895048 4.93719
O 7.00046 2.09819 2.47701
O 7.12596 3.52553 4.93719
48
Lattice="6.68446565099885 0 0 -2.44288146727757e-06 11.5778438798171 0 1.20544688835134e-05 -5.58262792779877e-06 5.45472226817889"
Ti 6.89713 10.0084 1.55243
Ti 3.5549 4.2195 1.55243
Ti 0.212671 2.30587 4.27979
Ti 3.5549 8.09479 4.27979
Ti 6.89713 4.22751 1.55243
Ti 3.5549 10.0164 1.55243
Ti 0.21267 8.08679 4.27979
Ti 3.5549 2.29787 4.27979
Ti 5.21908 1.33705 1.55243
Ti 1.89072 1.33705 1.55243
Ti 5.23295 7.12597 1.55243
Ti 1.89072 10.9772 4.27979
Ti 5.23295 5.18832 4.27979
Ti 5.21908 10.9772 4.27979
Ti 1.87685 5.18832 4.27979
Ti 1.87685 7.12597 1.55243
O 6.20776 2.65798 0.597852
O 0.902034 2.65798 2.50701
O 4.24427 8.4469 2.50701
O 0.902039 9.65631 5.23437
O 4.24427 3.86739 5.23437
O 6.20777 9.65631 3.32521
O 2.86553 3.86739 3.32521
O 2.86553 8.44691 0.597852
O 6.89713 0.368227 1.55243
O 3.5549 6.15715 1.55243
O 0.212669 11.9461 4.27979
O 3.5549 6.15715 4.27979
O 0.212664 8.08679 1.55243
O 3.5549 2.29787 1.55243
O 6.89714 4.2275 4.27979
O 3.5549 10.0164 4.27979
O 5.25883 2.11011 3.32521
O 1.85097 2.11011 5.23437
O 5.19321 7.89903 5.23437
O 1.85097 10.2042 2.50701
O 5.1932 4.41526 2.50701
O 5.25883 10.2042 0.59785
O 1.91659 4.41526 0.59785
O 1.9166 7.89903 3.32521
O 1.22723 5.60928 2.50701
O 5.88257 5.60928 0.597852
O 2.54033 11.3982 0.597852
O 5.88257 6.70502 3.32521
O 2.54034 0.916094 3.32521
O 1.22723 6.70501 5.23437
O 4.56947 0.916092 5.23437
O 4.56946 11.3982 2.50701
12
Lattice="4.41190974878384 0 0 2.9292818752369e-12 5.24502233660609 0 6.20427489771762e-10 3.06480547068241e-11 4.81818495386502"
Ti 4.56903 0.983872 1.33727
Ti 2.36307 1.87789 3.74636
Ti 4.56903 4.5004 3.74636
Ti 2.36308 3.60638 1.33727
O 1.34346 2.17176 2.15515
O 3.38269 2.17176 0.519391
O 1.17674 0.690002 4.56424
O 3.38269 3.31251 2.92848
O 1.17674 4.79427 2.15515
O 1.34346 3.31251 4.56424
O 3.54941 4.79427 0.519391
O 3.54941 0.690002 2.92848
12
Lattice="5.17054026873836 0 0 -2.20785954864424e-07 3.15449077881802 0 -2.25493593765668e-08 -3.95818994993628e-08 6.00428385832054"
Ti 1.32266 0.790207 0.698529
Ti 1.33297 2.36745 3.70067
Ti 3.91824 2.36745 5.45293
Ti 3.90793 0.790207 2.45079
O 1.87876 0.790207 2.59943
O 0.776865 2.36745 5.60157
O 3.36214 2.36745 3.55203
O 4.46403 0.790207 0.549891
O 0.115283 2.36745 2.12278
O 2.54035 0.790207 5.12492
O 5.12562 0.790207 4.02868
O 2.70055 2.36745 1.02654
12
Lattice="4.70604172660166 0 0 4.08976502795603e-16 4.70604172660166 0 9.62718252334812e-16 1.05829709724858e-15 4.70604172660166"
Ti 4.73823 0.0321841 0.0321841
Ti 4.73823 2.3852 2.3852
Ti 2.3852 4.73823 2.3852
Ti 2.3852 2.3852 0.0321841
O 1.20869 1.20869 1.20869
O 3.56172 1.20869 1.20869
O 1.20869 1.20869 3.56172
O 3.56172 1.20869 3.56172
O 1.20869 3.56172 1.20869
O 1.20869 3.56172 3.56172
O 3.56172 3.56172 3.56172
O 3.56172 3.56172 1.20869
24
Lattice="9.38953378514257 0 0 -0.000381974249206286 9.38959440977677 0 1.52297838375463e-05 4.84759864022563e-06 2.97467137584002"
Ti 3.95709 2.26686 3.0762
Ti 6.45564 8.14625 0.101538
Ti 1.76107 3.45145 1.58887
Ti 8.14614 3.95716 3.0762
Ti 8.65166 6.96165 1.58887
Ti 3.45118 8.65196 1.58887
Ti 6.96156 1.76115 1.58887
Ti 2.26659 6.45594 0.101536
O 2.01165 2.28611 0.101539
O 8.40108 8.127 3.0762
O 3.7065 3.4322 1.58887
O 8.12692 2.01175 3.0762
O 6.70624 6.9809 1.58887
O 3.43195 6.70654 1.58887
O 6.98078 3.70656 1.58887
O 2.28582 8.40136 0.101538
O 1.93107 4.65442 3.07621
O 8.48167 5.75868 0.101535
O 3.7871 1.06389 1.58887
O 5.75859 1.93114 0.10154
O 6.62564 9.34922 1.58887
O 1.06364 6.62594 1.58888
O 9.3491 3.78717 1.58886
O 4.65414 8.48197 3.0762
24
Lattice="4.68705607917 0 0 -1.05575182715809e-07 9.25698706023615 0 -8.17295110675571e-09 1.76136350428107e-05 4.79928239111965"
Ti 1.38954 3.80927 0.265832
Ti 1.19563 5.95044 2.66547
Ti 3.53916 5.95045 4.76727
Ti 1.19563 8.43776 0.265832
Ti 1.38954 1.32194 2.66547
Ti 3.73307 3.80928 2.36763
Ti 3.73307 1.32195 4.76727
Ti 3.53916 8.43777 2.36763
O 0.78288 2.94401 1.89562
O 1.80229 6.81571 4.29526
O 4.14582 6.8157 3.13748
O 1.80229 7.57251 1.89562
O 0.782884 2.18721 4.29526
O 3.12641 2.94401 0.737837
O 3.12641 2.18721 3.13748
O 4.14582 7.5725 0.737837
O 0.162617 0.500082 1.35692
O 2.42256 9.25963 3.75656
O 4.76608 9.25964 3.67618
O 2.42255 5.12858 1.35692
O 0.162617 4.63114 3.75656
O 2.50614 0.500087 1.27654
O 2.50614 4.63114 3.67618
O 4.76608 5.12858 1.27654
24
Lattice="9.25699 0 0 0 4.79928 0 0 0 4.68706"
Ti         8.19244        0.23516        1.19989
Ti         5.69305        4.56412        3.54342
Ti         1.06455        4.56412        3.48717
Ti         5.69305        2.63480        1.19989
Ti         8.19244        2.16448        3.54342
Ti         3.56394        0.23516        1.14364
Ti         3.56394        2.16448        3.48717
Ti         1.06455        2.63480        1.14364
O          7.45188        1.92451        0.63275
O          6.43361        2.87477        2.97628
O          1.80511        2.87477        4.05431
O          6.43361        4.32415        0.63275
O          7.45188        0.47513        2.97628
O          2.82338        1.92451        1.71078
O          2.82338        0.47513        4.05431
O          1.80511        4.32415        1.71078
O          8.74786        3.31150        2.17480
O          5.13763        1.48778        4.51833
O          0.50913        1.48778        2.51226
O          5.13763        0.91186        2.17480
O          8.74786        3.88742        4.51833
O          4.11936        3.31150        0.16873
O          4.11936        3.88742        2.51226
O          0.50913        0.91186        0.16873
12
Lattice="4.80704 0 0 0 4.66569 0 0 0 4.68541"
Ti         2.60926        3.38962        0.98956
Ti         2.19778        1.27607        3.33226
Ti         0.20574        1.27607        0.98956
Ti         4.60130        3.38962        3.33226
O          1.19070        2.62632        2.15904
O          3.61634        2.03937        4.50174
O          3.59422        2.03937        2.15904
O          1.21282        2.62632        4.50174
O          1.87138        0.43531        1.40047
O          2.93566        4.23038        3.74317
O          4.27490        4.23038        1.40047
O          0.53214        0.43531        3.74317
12
Lattice="4.71896667485924 0 0 2.60164957791248e-13 4.71896668104348 0 1.06838551934165e-13 4.06977130754301e-13 4.71896668127146"
Ti 4.81246 4.81246 4.81246
Ti 2.45298 2.45297 4.81246
Ti 0.0934917 2.45297 2.45298
Ti 2.45297 4.81246 2.45298
O 1.69798 1.69798 1.69798
O 0.848487 4.05746 1.69798
O 3.20797 4.05746 0.848487
O 4.05746 1.69798 0.848487
O 4.05746 0.848487 3.20797
O 1.69798 0.848487 4.05746
O 0.848487 3.20797 4.05746
O 3.20797 3.20797 3.20797
12
Lattice="9.43416890025772 0 0 3.76864835827436e-06 3.15580633996654 0 7.90760209105116e-05 -1.05215284603559e-07 3.53983751177445"
Ti 5.81156 0.785969 0.920244
Ti 8.30836 2.36387 2.69017
Ti 3.59129 2.36387 2.59726
Ti 1.09448 0.785969 0.827325
O 7.37525 0.785968 3.30095
O 6.7447 2.36387 1.53104
O 2.0276 2.36387 0.216551
O 2.65814 0.785969 1.98646
O 0.22381 0.785968 2.61089
O 4.46197 2.36387 0.840976
O 9.17903 2.36387 0.906606
O 4.94088 0.785968 2.67652
12
Lattice="3.53984 0 0 0 9.43417 0 0 0 3.15581"
Ti         3.47665        1.20861        0.74354
Ti         0.36191        8.07773        2.32145
Ti         2.13187        5.92570        0.74354
Ti         1.70673        3.36064        2.32145
O          2.37622        2.47156        0.74354
O          1.46234        6.81477        2.32145
O          3.23226        7.18874        0.74354
O          0.60630        2.09759        2.32145
O          0.86425        9.09784        0.74354
O          2.97432        0.18849        2.32145
O          1.20440        4.38076        0.74354
O          2.63417        4.90558        2.32145
6
Lattice="4.38447553427022 0 0 1.8118856588108e-16 4.38447553427022 0 5.59452837788273e-16 8.82636976405583e-16 2.94494267864272"
Ti 4.53499 4.53499 3.05128
Ti 2.34275 2.34275 1.57881
O 1.47615 1.47615 0.106334
O 3.20936 3.20936 3.05128
O 3.66838 1.01713 1.57881
O 1.01713 3.66838 1.57881
24
Lattice="11.7628561902851 0 0 4.36439932868036e-05 3.66867282990924 0 -0.961114463657624 0.000448753068429338 5.98137889081648"
Ti 3.69727 3.79826 1.51626
Ti 8.22236 0.130016 4.98415
Ti 9.57868 1.96393 1.51626
Ti 2.34095 1.96435 4.98415
Ti 7.24657 3.79831 1.49279
Ti 4.67305 0.129966 5.00762
Ti 1.36512 1.96398 1.49279
Ti 10.5545 1.9643 5.00762
O 1.7576 3.79831 1.43407
O 10.162 0.12997 5.06634
O 7.63901 1.96397 1.43407
O 4.28062 1.96431 5.06634
O 4.19808 0.129882 3.24927
O 7.72154 3.7984 3.25114
O 10.0795 1.96422 3.24927
O 1.84009 1.96406 3.25114
O 5.4786 3.79819 0.993446
O 6.44103 0.130085 5.50696
O 11.36 1.96386 0.993446
O 0.559623 1.96442 5.50696
O 9.29336 3.79827 1.1102
O 2.62626 0.130009 5.39021
O 3.41191 1.96393 1.1102
O 8.50771 1.96435 5.39021
