18
Lattice="7.45360571146869 0 0 5.3915656713068e-07 4.37352400823677 0 -1.14852341849436 -2.31624070448433e-06 5.14357389257315"
Ti 5.97625 4.43424 1.53244
Ti 0.499259 0.0655882 3.73394
Ti 5.40199 2.25235 4.10423
Ti 1.07352 2.24748 1.16215
Ti 3.23776 4.43668 2.63319
Ti 3.81202 2.24991 0.0614036
O 3.76892 1.26234 3.98718
O 2.70659 3.23748 1.2792
O 4.34318 1.05072 1.41539
O 2.13233 3.44911 3.85099
O 7.03291 1.23043 0.531765
O -0.557399 3.26939 4.73462
O 6.45865 1.08263 3.10355
O 0.0168626 3.4172 2.16283
O 4.86543 3.43885 2.76982
O 1.61008 1.06098 2.49656
O 5.43969 3.24774 0.198036
O 1.03582 1.25208 5.06834
18
Lattice="7.28578639329043 0 0 -1.38131379843389e-06 4.68347988786577 0 -1.0086284886729 9.95071272368562e-06 4.70397805868732"
Ti -0.417158 2.38985 2.41207
Ti 0.0871568 0.0481101 0.0600811
Ti 2.34209 2.36908 0.586912
Ti 4.10938 2.41063 4.23723
Ti 1.83778 0.0688881 2.9389
Ti 4.61369 4.71082 1.88524
O 1.32757 3.14363 2.00046
O 5.1239 1.63608 2.82368
O 0.823252 3.97782 4.35245
O 5.62822 0.801887 0.471687
O 6.50165 3.14336 0.673192
O -0.0501838 1.63635 4.15095
O 5.99734 3.97808 3.02518
O 0.454131 0.801626 1.79896
O 4.02865 3.18145 0.945649
O 2.42282 1.59826 3.87849
O 3.52434 3.94 3.29764
O 2.92713 0.839707 1.5265
24
Lattice="4.69603103415221 0 0 3.78500944609557e-06 4.69603276215639 0 1.75190420238068e-07 -4.19440304390766e-06 9.88330262824966"
Ti 0.0489383 2.39692 9.80239
Ti 0.0489358 0.0489057 7.33157
Ti 2.39696 4.74494 4.86074
Ti 0.0489383 2.39692 5.39226
Ti 2.39695 2.39692 2.38992
Ti 2.39695 0.0489085 0.450606
Ti 0.0489396 4.74494 2.92143
Ti 2.39695 2.39692 7.86308
O 3.53702 0.954556 1.79684
O 3.3026 1.25685 9.20931
O 1.49131 3.53699 9.20931
O 3.6049 1.49127 6.73849
O 3.3026 3.60487 3.51451
O 0.954587 3.60487 4.26766
O 0.954586 1.25685 8.45616
O 3.83932 3.53699 8.45616
O 1.18901 3.30257 6.73849
O 1.25689 1.49128 1.04369
O 1.4913 1.18897 3.51451
O 1.189 0.954554 5.98534
O 1.25689 3.83929 1.79684
O 3.83932 1.18897 4.26766
O 3.6049 3.83929 5.98534
O 3.53702 3.30257 1.04369
9
Lattice="4.86338665266768 0 0 -2.43169523896482 4.211816282103 0 2.68762306919281e-08 4.78014337532975e-07 4.06657008872694"
Ti 2.47627 1.44255 4.14829
Ti 0.0445803 2.84649 0.081715
Ti 0.0445817 0.0386091 2.115
O -1.58237 2.85657 3.17068
O 4.10323 1.43246 1.05932
O 0.849321 1.43246 3.17068
O 1.67153 2.85657 1.05932
O 3.29849 0.0386094 3.17068
O -0.777633 4.25043 1.05932
36
Lattice="10.7101170538158 0 0 -2.5217965006274e-05 4.78404753621642 0 -2.56702047237645 3.84832487935733e-05 6.33968147649408"
Ti 8.99713 2.31386 4.81082
Ti 3.64205 4.70588 4.81082
Ti -0.429472 2.56673 1.64096
Ti 4.9256 0.174705 1.64096
Ti 7.05464 4.65994 5.62599
Ti 0.229473 4.65993 3.99563
Ti 5.58454 2.26791 3.99563
Ti 1.51301 0.220649 0.825791
Ti 6.86806 2.61267 0.825791
Ti 8.33818 0.220655 2.45615
Ti 2.98311 2.61268 2.45615
Ti 1.69959 2.26792 5.62599
O -0.554026 0.840519 5.46957
O 7.83819 0.840512 4.15205
O 2.48312 3.23254 4.15205
O 9.12168 4.04007 0.982214
O 3.76663 1.64805 0.982214
O 0.729466 4.04008 2.29973
O 6.08454 1.64805 2.29973
O 4.80102 3.23254 5.46957
O 7.13409 3.13536 4.52392
O 0.150041 3.13537 5.09772
O 5.50511 0.743342 5.09772
O 1.43356 1.74523 1.92787
O 6.78861 4.13725 1.92787
O 8.41761 1.74522 1.35406
O 3.06254 4.13725 1.35406
O 1.77905 0.743335 4.52392
O 9.30263 3.61642 3.37333
O -2.0185 3.61644 6.24831
O 3.33657 1.22442 6.24831
O -0.734972 1.26417 3.07845
O 4.62007 3.65619 3.07845
O 10.5862 1.26415 0.203474
O 5.23109 3.65617 0.203474
O 3.94758 1.2244 3.37333
18
Lattice="2.9577009285403 0 0 1.68464420551509e-13 4.11735310368249 0 4.68495597237196e-14 4.29654007419747e-14 13.774719992298"
Ti 2.97845 2.76171 0.12549
Ti 1.4996 0.703031 7.01285
Ti 1.4996 0.753145 2.43304
Ti 2.97845 2.81182 4.7053
Ti 1.4996 0.753145 11.5927
Ti 2.97845 2.81182 9.3204
O 1.4996 2.24934 12.746
O 2.97845 0.190661 8.16707
O 1.4996 2.24934 1.27971
O 0.0207495 0.190661 5.85863
O 2.97845 1.4336 3.4392
O 1.4996 3.49227 3.69914
O 2.97845 1.4336 10.5865
O 1.4996 3.49227 10.3266
O 2.97845 0.147135 1.35676
O 1.4996 2.20581 5.78158
O 0.0207495 0.147135 12.6689
O 1.4996 2.20581 8.24412
6
Lattice="2.94343754185558 0 0 1.60472258596894e-06 4.34710452687327 0 2.17600668205136e-07 -6.88605096104587e-07 4.41511884672185"
Ti 1.44475 2.10095 2.18245
Ti -0.0269688 -0.0726023 -0.0251094
O 2.91647 3.0136 1.36355
O -0.026968 1.1883 3.00135
O 1.44475 3.36185 3.57111
O 1.44475 0.840049 0.793787
81
Lattice="8.93267291243446 0 0 -4.46496972972386 7.73830936378395 0 0.000280176966332711 0.000415412719837595 9.70267552954585"
Ti 1.41728 2.50743 3.57496
Ti -1.61844 2.53455 5.864
Ti -1.55445 2.4438 9.09848
Ti 5.77333 5.07681 0.340794
Ti 1.37044 2.40648 0.341048
Ti -1.66419 7.59276 9.09854
Ti -1.55363 7.60253 5.86426
Ti -3.0485 5.087 6.80919
Ti 1.30672 2.49765 6.80924
Ti 5.88307 -0.0721498 0.340735
Ti 1.37153 7.56563 6.8095
Ti 5.83732 4.98606 3.57527
Ti 5.77251 -0.0819227 3.57502
Ti 2.8016 5.01318 5.86432
Ti 2.91216 5.02296 2.63003
Ti 2.84845 5.11413 9.09823
Ti 7.26739 2.43361 2.63009
Ti 2.84735 -0.0450242 2.62978
Ti 4.34316 7.62881 1.76425
Ti -0.124278 -0.108201 7.67502
Ti 4.34233 2.47096 1.20657
Ti -0.123446 5.04965 8.23271
Ti 4.34234 2.47008 4.99848
Ti -0.12346 5.05053 4.4408
Ti 4.34329 7.62946 4.71964
Ti 4.34247 2.47072 7.95386
Ti -0.123593 5.04988 1.48541
O -1.68877 4.49562 5.43858
O 4.03935 0.837109 4.00044
O -1.38565 6.12858 7.23464
O 5.60453 1.39203 2.20464
O 4.64532 4.10392 2.20461
O 1.44186 5.60456 7.23492
O 3.08014 3.54901 4.00041
O 2.77812 7.0752 8.67281
O -3.32705 6.55118 8.67309
O 2.77702 1.91605 2.20436
O 0.178712 1.52477 8.67306
O 0.17953 6.6835 5.43883
O 1.13874 3.9716 5.43886
O 5.90765 3.02499 4.00069
O 7.54593 0.969433 0.76619
O -0.426435 3.41668 7.23467
O 1.44076 0.445413 0.766466
O 4.04017 5.99584 0.766217
O 2.14587 5.97337 4.26854
O 4.67781 4.89857 5.17071
O 1.81057 3.5462 8.40486
O 2.40832 3.97441 1.03442
O 4.00686 0.0424613 1.03434
O -2.39277 4.12682 8.40497
O 6.27635 0.966624 5.17063
O 2.14505 0.814632 7.50276
O 6.87438 1.39525 7.50287
O 6.61165 3.39379 1.03431
O 4.00796 5.20161 7.5028
O -0.458925 2.62204 4.26857
O -2.05747 6.55399 4.26864
O 2.07301 1.54724 5.17074
O -2.6555 6.12536 1.93641
O 0.21202 7.47815 8.40493
O 2.07383 6.70598 1.93651
O 0.210922 2.319 1.93648
O 7.64035 0.606047 3.28638
O 3.14019 6.97518 6.15275
O 4.37774 3.83989 9.38705
O -0.158862 3.68072 0.0522234
O 1.07951 5.70416 0.0523027
O 5.51038 1.75583 9.38712
O -0.0891417 1.26031 6.15283
O 3.17457 3.18562 6.52061
O 4.30721 1.10156 6.52067
O -1.2915 5.76478 0.0521593
O 5.54558 3.125 6.52075
O 1.07869 0.545426 3.28653
O 4.30802 6.2603 3.28645
O -3.42147 6.91456 6.15289
O -0.0883239 6.41905 2.9186
O 3.13937 1.81645 9.38697
O 1.04432 4.33499 2.91867
O -1.3267 4.39561 2.91852
18
Lattice="4.72734430925231 0 0 -6.46958737580399e-08 4.74156488043647 0 1.97385117002752 2.99273022642793e-08 7.06108246074166"
Ti 3.26183 -0.0582324 3.41816
Ti 0.898153 2.31255 3.41816
Ti 3.22309 2.2337 5.82712
Ti 3.30056 2.3914 1.0092
Ti 0.936889 4.60448 1.0092
Ti 5.58676 0.0206225 5.82712
O 4.02041 1.59086 2.62304
O 2.50324 3.03424 4.21328
O 4.86691 3.96165 4.21328
O 1.65674 0.663455 2.62304
O 2.03479 3.47825 6.68143
O 4.48886 1.14685 0.154885
O 2.12519 1.10747 0.154885
O 4.39846 3.51763 6.68143
O 1.6323 3.03103 1.83712
O 4.89135 1.59407 4.9992
O 2.52767 0.660251 4.9992
O 3.99598 3.96485 1.83712
9
Lattice="5.22180128970716 0 0 -2.60964393382133 4.5221387768345 0 -1.36055102040112e-13 -2.43887187584764e-13 3.09248768462328"
Ti -0.0583793 2.96393 1.48525
Ti 2.55219 1.45656 1.48525
Ti -0.0591577 -0.0510631 3.03149
O -0.558556 4.47019 3.03149
O 4.10778 1.77607 3.03149
O 1.49771 2.6432 3.03149
O -1.97994 3.27733 1.48525
O 0.630462 1.14274 1.48525
O 3.78416 -0.0511148 1.48525
6
Lattice="3.15703181244567 0 0 1.25426505991855e-08 3.5298009955187 0 9.96770169632255e-08 -4.06584591633862e-09 4.73575596197728"
Ti 3.12343 3.03488 1.20793
Ti 1.54492 1.26998 3.44618
O 1.54492 3.05891 2.56954
O -0.0336008 1.29401 2.08457
O 1.54492 2.45201 0.26287
O -0.0336008 0.687111 4.39124
18
Lattice="4.68840801791353 0 0 -0.23220802189563 4.76734683974229 0 0.228344707416929 -1.95204952091237 7.11021067162813"
Ti 3.48445 2.33388 3.33203
Ti 1.04278 0.313726 3.58329
Ti 3.62816 -0.0781841 1.16758
Ti 0.899074 2.72579 5.74774
Ti 1.04008 2.46824 0.925484
Ti 3.48715 0.179366 5.98983
O 0.174691 -0.841873 6.97713
O 4.35255 3.48947 -0.0618123
O 4.33631 -1.16775 4.64309
O 0.190926 3.81535 2.27223
O 2.60871 3.0237 1.82784
O 1.91853 -0.376099 5.08747
O 0.171696 1.41962 2.24058
O 4.35554 1.22798 4.67474
O 1.80481 2.12917 4.18853
O 2.72243 0.518435 2.72678
O 2.20822 1.56361 6.62624
O 2.31901 1.08399 0.289076
